Version 4
SHEET 1 880 1288
WIRE 384 -224 240 -224
WIRE 560 -224 560 -288
WIRE 560 -224 384 -224
WIRE 384 -208 384 -224
WIRE 560 -192 560 -224
WIRE 496 -144 464 -144
WIRE 384 -96 384 -128
WIRE 464 -96 464 -144
WIRE 464 -96 384 -96
WIRE 384 -80 384 -96
WIRE 240 -16 240 -224
WIRE 560 0 560 -96
WIRE 656 0 560 0
WIRE 768 0 720 0
WIRE 384 16 384 -16
WIRE -432 32 -432 0
WIRE -416 32 -432 32
WIRE -352 32 -368 32
WIRE -336 32 -352 32
WIRE 560 48 560 0
WIRE -336 64 -336 32
WIRE 768 64 768 0
WIRE 384 96 384 80
WIRE 384 96 352 96
WIRE 496 96 384 96
WIRE -432 144 -432 32
WIRE -336 144 -432 144
WIRE 128 144 -112 144
WIRE 240 144 240 64
WIRE 240 144 192 144
WIRE 288 144 240 144
WIRE 64 208 -112 208
WIRE -480 224 -480 160
WIRE -336 224 -480 224
WIRE 240 224 240 144
WIRE 352 224 352 192
WIRE -528 272 -528 224
WIRE -336 272 -528 272
WIRE -16 272 -112 272
WIRE 64 304 64 208
WIRE 240 304 64 304
WIRE 352 304 240 304
WIRE 464 304 352 304
WIRE 560 304 560 144
WIRE 560 304 464 304
WIRE 688 304 560 304
WIRE 768 304 688 304
WIRE -336 336 -432 336
WIRE 64 336 64 304
WIRE 64 336 -112 336
WIRE 464 352 464 304
WIRE -16 400 -16 272
WIRE 64 400 64 336
WIRE 64 400 48 400
WIRE -432 448 -432 336
WIRE -16 448 -16 400
WIRE 384 512 240 512
WIRE 560 512 560 448
WIRE 560 512 384 512
WIRE 384 528 384 512
WIRE 560 544 560 512
WIRE 496 592 464 592
WIRE 384 640 384 608
WIRE 464 640 464 592
WIRE 464 640 384 640
WIRE 384 656 384 640
WIRE 240 720 240 512
WIRE 560 736 560 640
WIRE 656 736 560 736
WIRE 768 736 720 736
WIRE 384 752 384 720
WIRE -432 768 -432 736
WIRE -416 768 -432 768
WIRE -352 768 -368 768
WIRE -336 768 -352 768
WIRE 560 784 560 736
WIRE -336 800 -336 768
WIRE 768 800 768 736
WIRE 384 832 384 816
WIRE 384 832 352 832
WIRE 496 832 384 832
WIRE -432 880 -432 768
WIRE -336 880 -432 880
WIRE 128 880 -112 880
WIRE 240 880 240 800
WIRE 240 880 192 880
WIRE 288 880 240 880
WIRE 64 944 -112 944
WIRE -480 960 -480 896
WIRE -336 960 -480 960
WIRE 240 960 240 880
WIRE 352 960 352 928
WIRE -528 1008 -528 960
WIRE -336 1008 -528 1008
WIRE -16 1008 -112 1008
WIRE 64 1040 64 944
WIRE 240 1040 64 1040
WIRE 352 1040 240 1040
WIRE 464 1040 352 1040
WIRE 560 1040 560 880
WIRE 560 1040 464 1040
WIRE 688 1040 560 1040
WIRE 768 1040 688 1040
WIRE -336 1072 -432 1072
WIRE 64 1072 64 1040
WIRE 64 1072 -112 1072
WIRE 464 1088 464 1040
WIRE -16 1136 -16 1008
WIRE 64 1136 64 1072
WIRE 64 1136 48 1136
WIRE -432 1184 -432 1072
WIRE -16 1184 -16 1136
FLAG 464 352 0
FLAG 560 -288 Vsupply
IOPIN 560 -288 In
FLAG -16 448 Vref
IOPIN -16 448 In
FLAG -432 0 Vdd
IOPIN -432 0 In
FLAG -480 160 CE0
IOPIN -480 160 In
FLAG -528 224 SCLK
IOPIN -528 224 In
FLAG -432 448 MOSI
IOPIN -432 448 In
FLAG -336 64 0
FLAG 464 1088 0
FLAG 560 448 Vsupply
IOPIN 560 448 In
FLAG -16 1184 Vref
IOPIN -16 1184 In
FLAG -432 736 Vdd
IOPIN -432 736 In
FLAG -480 896 CE1
IOPIN -480 896 In
FLAG -528 960 SCLK
IOPIN -528 960 In
FLAG -432 1184 MOSI
IOPIN -432 1184 In
FLAG -336 800 0
FLAG 688 304 VERTICAL
FLAG 688 1040 HORIZONTAL
SYMBOL cap 192 128 R90
WINDOW 0 0 32 VBottom 2
WINDOW 3 32 32 VTop 2
SYMATTR InstName C1
SYMBOL npn 288 96 R0
SYMATTR InstName Q1
SYMBOL npn 496 -192 R0
SYMATTR InstName Q2
SYMBOL pnp 496 48 R0
SYMATTR InstName Q3
SYMBOL cap 720 -16 R90
WINDOW 0 0 32 VBottom 2
WINDOW 3 32 32 VTop 2
SYMATTR InstName C2
SYMBOL res 224 -32 R0
SYMATTR InstName R1
SYMBOL res 224 208 R0
SYMATTR InstName R2
SYMBOL res 368 -224 R0
SYMATTR InstName R3
SYMBOL res 336 208 R0
SYMATTR InstName R4
SYMBOL sym\\Magnetic\\ferrite\ bead 800 144 R90
SYMATTR InstName L2
SYMBOL sym\\Magnetic\\ferrite\ bead 800 224 R90
SYMATTR InstName L3
SYMBOL sym\\Magnetic\\ferrite\ bead 800 64 R90
SYMATTR InstName L1
SYMBOL Misc\\DIP8 -224 240 R0
SYMATTR InstName DAC1
SYMBOL diode 368 -80 R0
SYMATTR InstName D1
SYMBOL diode 368 16 R0
SYMATTR InstName D2
SYMBOL Misc\\EuropeanPolcap -416 48 R270
WINDOW 0 32 32 VTop 2
WINDOW 3 0 32 VBottom 2
SYMATTR InstName C3
SYMBOL cap 192 864 R90
WINDOW 0 0 32 VBottom 2
WINDOW 3 32 32 VTop 2
SYMATTR InstName C4
SYMBOL npn 288 832 R0
SYMATTR InstName Q4
SYMBOL npn 496 544 R0
SYMATTR InstName Q5
SYMBOL pnp 496 784 R0
SYMATTR InstName Q6
SYMBOL cap 720 720 R90
WINDOW 0 0 32 VBottom 2
WINDOW 3 32 32 VTop 2
SYMATTR InstName C5
SYMBOL res 224 704 R0
SYMATTR InstName R5
SYMBOL res 224 944 R0
SYMATTR InstName R6
SYMBOL res 368 512 R0
SYMATTR InstName R7
SYMBOL res 336 944 R0
SYMATTR InstName R8
SYMBOL sym\\Magnetic\\ferrite\ bead 800 880 R90
SYMATTR InstName L4
SYMBOL sym\\Magnetic\\ferrite\ bead 800 960 R90
SYMATTR InstName L5
SYMBOL sym\\Magnetic\\ferrite\ bead 800 800 R90
SYMATTR InstName L6
SYMBOL Misc\\DIP8 -224 976 R0
SYMATTR InstName DAC2
SYMBOL diode 368 656 R0
SYMATTR InstName D3
SYMBOL diode 368 752 R0
SYMATTR InstName D4
SYMBOL Misc\\EuropeanPolcap -416 784 R270
WINDOW 0 32 32 VTop 2
WINDOW 3 0 32 VBottom 2
SYMATTR InstName C6
SYMBOL Misc\\EuropeanPolcap -16 416 R270
WINDOW 0 32 32 VTop 2
WINDOW 3 0 32 VBottom 2
SYMATTR InstName C7
SYMBOL Misc\\EuropeanPolcap -16 1152 R270
WINDOW 0 32 32 VTop 2
WINDOW 3 0 32 VBottom 2
SYMATTR InstName C8
