Version 4
SHEET 1 1024 1292
WIRE -128 16 -336 16
WIRE 624 16 -128 16
WIRE -448 96 -544 96
WIRE -384 96 -448 96
WIRE 80 112 -336 112
WIRE -128 176 -128 16
WIRE -128 176 -336 176
WIRE 832 176 576 176
WIRE 80 224 80 112
WIRE 208 224 80 224
WIRE 576 224 576 176
WIRE 576 224 496 224
WIRE -448 256 -448 96
WIRE -384 256 -448 256
WIRE 80 272 -336 272
WIRE 80 288 80 272
WIRE 208 288 80 288
WIRE 576 288 576 224
WIRE 576 288 496 288
WIRE -128 320 -128 176
WIRE -128 320 -336 320
WIRE 832 320 784 320
WIRE 208 352 80 352
WIRE 624 352 624 16
WIRE 624 352 496 352
WIRE -448 400 -448 256
WIRE -384 400 -448 400
WIRE 80 416 80 352
WIRE 80 416 -336 416
WIRE 208 416 112 416
WIRE 784 416 784 320
WIRE 784 416 496 416
WIRE -128 464 -128 320
WIRE -128 464 -336 464
WIRE 208 480 128 480
WIRE 832 480 496 480
WIRE -448 544 -448 400
WIRE -384 544 -448 544
WIRE 208 544 144 544
WIRE 784 544 496 544
WIRE 112 560 112 416
WIRE 112 560 -336 560
WIRE 784 576 784 544
WIRE 832 576 784 576
WIRE -128 608 -128 464
WIRE -128 608 -336 608
WIRE 208 608 160 608
WIRE 224 608 208 608
WIRE 496 608 480 608
WIRE 704 608 496 608
WIRE 704 656 704 608
WIRE 832 656 704 656
WIRE 208 672 192 672
WIRE 592 672 496 672
WIRE -448 688 -448 544
WIRE -384 688 -448 688
WIRE 128 704 128 480
WIRE 128 704 -336 704
WIRE -128 768 -128 608
WIRE -128 768 -336 768
WIRE 592 768 592 672
WIRE 832 768 592 768
WIRE -448 848 -448 688
WIRE -384 848 -448 848
WIRE 144 864 144 544
WIRE 144 864 -336 864
WIRE -128 928 -128 768
WIRE -128 928 -336 928
WIRE -448 1008 -448 848
WIRE -384 1008 -448 1008
WIRE 160 1024 160 608
WIRE 160 1024 -336 1024
WIRE -192 1072 -336 1072
WIRE -128 1072 -128 928
WIRE -128 1072 -192 1072
WIRE -448 1152 -448 1008
WIRE -384 1152 -448 1152
WIRE 192 1168 192 672
WIRE 192 1168 -336 1168
WIRE -192 1264 -192 1072
FLAG -192 1264 0
FLAG -544 96 +5V
IOPIN -544 96 In
FLAG 832 656 GPIO29
IOPIN 832 656 In
FLAG 832 320 GPIO31
IOPIN 832 320 In
FLAG 832 176 +5V
IOPIN 832 176 In
FLAG 832 480 GPIO33
IOPIN 832 480 In
FLAG 832 576 GPIO37
IOPIN 832 576 In
FLAG 832 768 DGND
IOPIN 832 768 Out
SYMBOL sym\\Misc\\DIP16 352 320 R0
WINDOW 0 0 -144 Center 2
SYMATTR InstName MCP3008
SYMBOL mesfet -384 16 R0
WINDOW 3 56 68 Left 2
SYMATTR InstName S1
SYMATTR Value MCP9700A
SYMBOL mesfet -384 176 R0
SYMATTR InstName S2
SYMATTR Value ""
SYMBOL mesfet -384 320 R0
SYMATTR InstName S3
SYMATTR Value ""
SYMBOL mesfet -384 464 R0
SYMATTR InstName S4
SYMATTR Value ""
SYMBOL mesfet -384 608 R0
SYMATTR InstName S5
SYMATTR Value ""
SYMBOL mesfet -384 768 R0
SYMATTR InstName S6
SYMATTR Value ""
SYMBOL mesfet -384 928 R0
SYMATTR InstName S7
SYMATTR Value ""
SYMBOL mesfet -384 1072 R0
SYMATTR InstName S8
SYMATTR Value ""
