Version 4
SHEET 1 880 680
WIRE 80 -64 16 -64
WIRE 352 -64 304 -64
WIRE 80 0 -16 0
WIRE 528 0 304 0
WIRE -272 16 -320 16
WIRE -160 16 -192 16
WIRE -160 64 -160 16
WIRE -16 64 -16 0
WIRE -16 64 -160 64
WIRE 80 64 32 64
WIRE 528 64 304 64
WIRE -320 96 -320 16
WIRE -160 96 -160 64
WIRE 32 128 32 64
WIRE 32 128 -48 128
WIRE 80 128 32 128
WIRE 352 128 352 -64
WIRE 352 128 304 128
WIRE -320 208 -320 160
WIRE -160 208 -160 176
WIRE -160 208 -320 208
WIRE -48 208 -48 128
WIRE -48 208 -160 208
WIRE 32 208 32 128
WIRE 352 256 352 128
FLAG 32 208 0
FLAG 16 -64 GPIO29
IOPIN 16 -64 In
FLAG 528 64 GPIO33
IOPIN 528 64 Out
FLAG 528 0 GPIO31
IOPIN 528 0 In
FLAG 352 256 5V
IOPIN 352 256 In
SYMBOL sym\\Misc\\DIP8 192 32 R0
SYMATTR InstName ADC0831
SYMBOL res -176 80 R0
SYMATTR InstName R2
SYMATTR Value 100
SYMBOL Misc\\cell -320 96 R0
WINDOW 123 0 0 Left 0
WINDOW 39 0 0 Left 0
SYMATTR InstName 9V
SYMATTR Value ""
SYMBOL res -176 0 R90
WINDOW 0 0 56 VBottom 2
WINDOW 3 32 56 VTop 2
SYMATTR InstName R1
SYMATTR Value 100
